Version 4
SHEET 1 1752 696
WIRE 144 -64 112 -64
WIRE 336 -64 224 -64
WIRE -752 -16 -832 -16
WIRE -624 -16 -656 -16
WIRE -448 -16 -624 -16
WIRE -224 -16 -448 -16
WIRE 112 -16 112 -64
WIRE 112 -16 -224 -16
WIRE 336 -16 336 -64
WIRE 352 -16 336 -16
WIRE 528 -16 448 -16
WIRE 624 -16 528 -16
WIRE 752 -16 624 -16
WIRE 880 -16 752 -16
WIRE 976 -16 880 -16
WIRE 1056 -16 976 -16
WIRE -624 0 -624 -16
WIRE -448 16 -448 -16
WIRE -448 16 -496 16
WIRE -400 16 -448 16
WIRE -224 16 -224 -16
WIRE 112 16 112 -16
WIRE 144 16 112 16
WIRE 240 16 224 16
WIRE 256 16 240 16
WIRE 336 16 336 -16
WIRE 240 48 240 16
WIRE 256 48 240 48
WIRE 432 48 432 32
WIRE 464 48 432 48
WIRE 528 48 528 -16
WIRE 112 64 112 16
WIRE 256 64 256 48
WIRE -672 80 -672 32
WIRE -624 80 -624 64
WIRE -624 80 -672 80
WIRE -448 96 -496 96
WIRE -400 96 -448 96
WIRE 624 96 624 -16
WIRE 752 96 752 -16
WIRE -832 112 -832 -16
WIRE -672 112 -672 80
WIRE -224 128 -224 96
WIRE -224 128 -288 128
WIRE 64 128 -224 128
WIRE 368 128 320 128
WIRE -224 144 -224 128
WIRE 368 144 368 128
WIRE 432 144 432 128
WIRE 432 144 368 144
WIRE 880 144 880 -16
WIRE 976 144 976 -16
WIRE 1056 144 1056 -16
WIRE -288 160 -288 128
WIRE 432 160 432 144
WIRE 624 208 624 176
WIRE 624 208 320 208
WIRE 624 240 624 208
WIRE 432 272 432 240
WIRE -448 288 -448 96
WIRE -48 288 -112 288
WIRE 16 288 -48 288
WIRE 64 288 16 288
WIRE 752 288 752 176
WIRE 752 288 320 288
WIRE 752 304 752 288
WIRE -112 320 -112 288
WIRE -48 320 -48 288
WIRE 16 320 16 288
WIRE -832 400 -832 192
WIRE -672 400 -672 192
WIRE -672 400 -832 400
WIRE -448 400 -448 352
WIRE -448 400 -672 400
WIRE -288 400 -288 224
WIRE -288 400 -448 400
WIRE -224 400 -224 224
WIRE -224 400 -288 400
WIRE -112 400 -112 384
WIRE -112 400 -224 400
WIRE -48 400 -48 384
WIRE -48 400 -112 400
WIRE 16 400 16 384
WIRE 16 400 -48 400
WIRE 192 400 192 336
WIRE 192 400 16 400
WIRE 432 400 432 336
WIRE 432 400 192 400
WIRE 624 400 624 320
WIRE 624 400 432 400
WIRE 752 400 752 368
WIRE 752 400 624 400
WIRE 880 400 880 208
WIRE 880 400 752 400
WIRE 976 400 976 208
WIRE 976 400 880 400
WIRE 1056 400 1056 224
WIRE 1056 400 976 400
WIRE 192 416 192 400
FLAG 192 416 0
SYMBOL nmos 352 32 R270
SYMATTR InstName M1
SYMATTR Value IRF6644
SYMBOL zener 528 32 R90
WINDOW 0 -4 32 VBottom 2
WINDOW 3 36 32 VTop 2
SYMATTR InstName D1
SYMATTR Value BZX84B11VL
SYMBOL zener -608 64 R180
WINDOW 0 24 64 Left 2
WINDOW 3 24 0 Left 2
SYMATTR InstName D2
SYMATTR Value BZX84B11VL
SYMBOL pmos -752 32 R270
SYMATTR InstName M2
SYMATTR Value Si7461DP
SYMBOL res -688 96 R0
SYMATTR InstName R2
SYMATTR Value 100k
SYMBOL res 416 32 R0
SYMATTR InstName R3
SYMATTR Value 10
SYMBOL res 416 144 R0
SYMATTR InstName R4
SYMATTR Value 1k
SYMBOL cap 416 272 R0
SYMATTR InstName C1
SYMATTR Value 10n
SYMBOL res 608 80 R0
SYMATTR InstName R5
SYMATTR Value 47k
SYMATTR SpiceLine tol=1 pwr=0.1
SYMBOL res 608 224 R0
SYMATTR InstName R6
SYMATTR Value 4.7k
SYMATTR SpiceLine tol=1 pwr=0.1
SYMBOL res 736 80 R0
SYMATTR InstName R7
SYMATTR Value 8.2k
SYMBOL cap 864 144 R0
SYMATTR InstName C2
SYMATTR Value 100µ
SYMBOL res -240 0 R0
SYMATTR InstName R8
SYMATTR Value 120k
SYMATTR SpiceLine tol=1 pwr=0.1
SYMBOL res -240 128 R0
SYMATTR InstName R9
SYMATTR Value 12k
SYMATTR SpiceLine tol=1 pwr=0.1
SYMBOL voltage -832 96 R0
WINDOW 123 0 0 Left 0
WINDOW 39 0 0 Left 0
SYMATTR InstName V1
SYMATTR Value SINE(20 20 1 0 0 180)
SYMBOL cap -304 160 R0
SYMATTR InstName C4
SYMATTR Value 0.1µ
SYMBOL LED 736 304 R0
SYMATTR InstName D3
SYMATTR Value QTLP690C
SYMATTR Description Diode
SYMATTR Type diode
SYMBOL diode 992 208 R180
WINDOW 0 24 64 Left 2
WINDOW 3 24 0 Left 2
SYMATTR InstName D4
SYMATTR Value RF101L2S
SYMBOL res 1040 128 R0
SYMATTR InstName R10
SYMATTR Value 1
SYMBOL cap 0 320 R0
SYMATTR InstName C3
SYMATTR Value 1µ
SYMBOL PowerProducts\\LT1641-1 192 192 R0
SYMATTR InstName U1
SYMBOL res 240 -80 R90
WINDOW 0 0 56 VBottom 2
WINDOW 3 32 56 VTop 2
SYMATTR InstName R1
SYMATTR Value 3m
SYMBOL res 240 0 R90
WINDOW 0 0 56 VBottom 2
WINDOW 3 32 56 VTop 2
SYMATTR InstName R11
SYMATTR Value 100
SYMBOL res 352 0 R90
WINDOW 0 0 56 VBottom 2
WINDOW 3 32 56 VTop 2
SYMATTR InstName R12
SYMATTR Value 100
SYMBOL res -512 0 R0
SYMATTR InstName R15
SYMATTR Value 1.7k
SYMBOL LED -464 288 R0
SYMATTR InstName D5
SYMATTR Value QTLP690C
SYMATTR Description Diode
SYMATTR Type diode
SYMBOL res -416 0 R0
SYMATTR InstName R13
SYMATTR Value 1.7k
SYMBOL cap -64 320 R0
SYMATTR InstName C5
SYMATTR Value 1µ
SYMBOL cap -128 320 R0
SYMATTR InstName C6
SYMATTR Value 1µ
TEXT -864 440 Left 2 !.tran 0 1 0 100us
TEXT 1160 40 Left 2 !.temp 50
