Version 4
SHEET 1 880 680
WIRE 144 -112 128 -112
WIRE 224 -112 208 -112
WIRE 128 -64 128 -112
WIRE 128 -64 -48 -64
WIRE 224 -64 224 -112
WIRE 352 -64 224 -64
WIRE -48 -32 -48 -64
WIRE 352 -32 352 -64
WIRE -48 96 -48 48
WIRE 208 96 208 -16
WIRE 208 96 -48 96
WIRE 352 96 352 48
WIRE 352 96 208 96
WIRE 208 112 208 96
FLAG 208 112 0
SYMBOL pmos 128 -16 R270
SYMATTR InstName M1
SYMATTR Value IRF7406
SYMBOL voltage -48 -48 R0
WINDOW 123 0 0 Left 0
WINDOW 39 0 0 Left 0
SYMATTR InstName V1
SYMATTR Value SINE(0 20 1)
SYMBOL diode 144 -96 R270
WINDOW 0 32 32 VTop 2
WINDOW 3 0 32 VBottom 2
SYMATTR InstName D1
SYMBOL res 336 -48 R0
SYMATTR InstName R1
SYMATTR Value 20
TEXT -82 136 Left 2 !.tran 0 2 0 0.01
